Version 4
SHEET 1 1444 680
WIRE 784 -64 128 -64
WIRE 128 32 128 -64
WIRE 240 32 128 32
WIRE 592 32 528 32
WIRE -128 128 -224 128
WIRE -16 128 -48 128
WIRE 80 128 -16 128
WIRE 176 128 80 128
WIRE 240 128 176 128
WIRE 592 128 592 96
WIRE 592 128 528 128
WIRE 688 128 592 128
WIRE 784 128 784 -64
WIRE 784 128 768 128
WIRE 944 128 784 128
WIRE 1040 128 944 128
WIRE 1072 128 1040 128
WIRE -16 144 -16 128
WIRE 176 224 176 128
WIRE 240 224 176 224
WIRE 592 224 592 192
WIRE 592 224 528 224
WIRE -304 240 -304 128
WIRE 784 240 784 128
WIRE 1072 272 1072 208
WIRE 240 320 176 320
WIRE 784 320 528 320
WIRE -304 352 -304 320
WIRE 176 352 176 320
WIRE 784 416 784 400
FLAG -304 352 0
FLAG 784 416 0
FLAG 944 192 0
FLAG 176 352 0
FLAG 80 192 0
FLAG 1072 272 0
FLAG 1040 128 U_OUT_A1
FLAG 240 128 Vin
SYMBOL PowerProducts\\LT3502A 384 176 R0
SYMATTR InstName U1
SYMBOL voltage -304 224 R0
WINDOW 3 -72 2 Left 2
WINDOW 123 0 0 Left 0
WINDOW 39 0 0 Left 0
SYMATTR Value 6
SYMATTR InstName V1
SYMBOL res -208 112 R90
WINDOW 0 0 56 VBottom 2
WINDOW 3 32 56 VTop 2
SYMATTR InstName RG
SYMATTR Value 100m
SYMBOL ind -144 144 R270
WINDOW 0 32 56 VTop 2
WINDOW 3 5 56 VBottom 2
SYMATTR InstName LG
SYMATTR Value 100n
SYMBOL res 768 304 R0
SYMATTR InstName R2
SYMATTR Value 10k
SYMBOL res 768 224 R0
SYMATTR InstName R1
SYMATTR Value 15k
SYMBOL cap 576 32 R0
SYMATTR InstName CB
SYMATTR Value 0.95µ
SYMATTR SpiceLine V=50 Irms=0 Rser=0.0157659 Lser=310.172p
SYMBOL cap 928 128 R0
SYMATTR InstName COUT1
SYMATTR Value 21.93µ
SYMATTR SpiceLine V=16 Irms=0 Rser=0.00308846 Lser=1.15822p
SYMBOL cap 64 128 R0
SYMATTR InstName CIN1
SYMATTR Value 0.93
SYMATTR SpiceLine V=25 Irms=0 Rser=0.00804838 Lser=269.844p
SYMBOL schottky 608 192 R180
WINDOW 0 24 64 Left 2
WINDOW 3 -38 -48 Left 2
SYMATTR InstName D1
SYMATTR Value MBR0520L
SYMATTR Description Diode
SYMATTR Type diode
SYMBOL ind 784 144 M270
WINDOW 0 32 56 VTop 2
WINDOW 3 5 56 VBottom 1
SYMATTR InstName L2
SYMATTR Value flux={3.3µ*25A}*tanh(x/{25A})
SYMATTR SpiceLine Ipk=15 Rser=0.0034 Cpar=14.697p
SYMBOL res 1056 112 R0
SYMATTR InstName R3
SYMATTR Value 10
TEXT 256 -176 Left 2 ;SEKCJA ANALOGOWA 1
TEXT -376 440 Left 2 !.tran 0 4m 3m
