Version 4
SHEET 1 1848 740
WIRE -336 -80 -432 -80
WIRE -208 -80 -256 -80
WIRE -112 -80 -208 -80
WIRE -32 -80 -112 -80
WIRE 80 -80 -32 -80
WIRE 256 -80 80 -80
WIRE 432 -80 256 -80
WIRE -32 -64 -32 -80
WIRE 256 -64 256 -80
WIRE 80 0 80 -80
WIRE 112 0 80 0
WIRE 432 0 432 -80
WIRE 432 0 400 0
WIRE -512 32 -512 -80
WIRE -208 32 -208 -16
WIRE -112 32 -112 -16
WIRE -32 32 -32 0
WIRE 112 80 80 80
WIRE 432 80 400 80
WIRE -512 144 -512 112
WIRE -64 160 -80 160
WIRE 32 160 16 160
WIRE 112 160 96 160
WIRE 112 240 0 240
WIRE 480 240 400 240
WIRE 864 240 480 240
WIRE 0 320 0 240
WIRE 112 320 0 320
WIRE 16 400 0 400
WIRE 112 400 96 400
WIRE 432 400 400 400
WIRE 864 400 864 240
WIRE 864 400 512 400
WIRE 1184 400 864 400
WIRE 1280 400 1184 400
WIRE 1376 400 1280 400
WIRE 1184 416 1184 400
WIRE 1376 416 1376 400
WIRE 32 480 0 480
WIRE 112 480 96 480
WIRE 864 480 400 480
WIRE 1184 480 1184 464
WIRE 1184 480 864 480
WIRE 864 496 864 480
WIRE 1376 512 1376 496
WIRE 304 560 304 544
WIRE 864 592 864 576
FLAG 304 560 0
FLAG 0 400 0
FLAG -32 32 0
FLAG 864 592 0
FLAG 1376 512 0
FLAG 1376 400 OUT
FLAG -32 -80 IN
FLAG 80 80 0
FLAG 432 80 0
FLAG 0 480 0
FLAG -80 160 0
FLAG -512 144 0
FLAG -208 32 0
FLAG -112 32 0
FLAG 1280 464 0
FLAG 480 304 0
SYMBOL res 112 384 R90
WINDOW 0 0 56 VBottom 2
WINDOW 3 32 56 VTop 2
SYMATTR InstName RT-C1
SYMATTR Value 43k
SYMBOL ind 416 416 R270
WINDOW 0 32 56 VTop 2
WINDOW 3 5 56 VBottom 2
SYMATTR InstName L1-C1
SYMATTR Value flux={4.7µ*15.6A}*tanh(x/15.6A)
SYMATTR SpiceLine Ipk=15.5 Rser=0.00725 Rpar=2952 Cpar=3.499p
SYMBOL res 848 384 R0
SYMATTR InstName R2-C1
SYMATTR Value 1Meg
SYMBOL res 848 480 R0
SYMATTR InstName R3-C1
SYMATTR Value 240k
SYMBOL cap 96 496 M270
WINDOW 0 32 32 VTop 2
WINDOW 3 0 32 VBottom 2
SYMATTR InstName CTRSS-C1
SYMATTR Value 0.001µ
SYMATTR SpiceLine V=50 Irms=63.1m Rser=3.62516 Lser=0.4nH
SYMBOL LT8643S 256 240 R0
SYMATTR InstName U1
SYMBOL cap 96 144 R90
WINDOW 0 0 32 VBottom 2
WINDOW 3 32 32 VTop 2
SYMATTR InstName CVc
SYMATTR Value 330p
SYMATTR SpiceLine V=6.3 Irms=8.64m Rser=10.395 Lser=0.8n
SYMBOL res 32 144 R90
WINDOW 0 0 56 VBottom 2
WINDOW 3 32 56 VTop 2
SYMATTR InstName RVc
SYMATTR Value 8.2k
SYMBOL voltage -512 16 R0
WINDOW 3 -72 2 Left 2
WINDOW 123 0 0 Left 0
WINDOW 39 0 0 Left 0
SYMATTR Value 6
SYMATTR InstName V1
SYMBOL res -416 -96 R90
WINDOW 0 0 56 VBottom 2
WINDOW 3 32 56 VTop 2
SYMATTR InstName RG-C1
SYMATTR Value 100m
SYMBOL ind -352 -64 R270
WINDOW 0 32 56 VTop 2
WINDOW 3 5 56 VBottom 2
SYMATTR InstName LG-C1
SYMATTR Value 100n
SYMBOL cap -48 -64 R0
SYMATTR InstName CIN3
SYMATTR Value 1.1µ
SYMATTR SpiceLine V=6.3 Irms=8.43 Rser=0.0103622 Lser=0.4n
SYMBOL cap -224 -80 R0
SYMATTR InstName CIN_1
SYMATTR Value 2.35µ
SYMATTR SpiceLine V=6.3 Irms=5.21 Rser=0.0271534 Lser=0.4n
SYMBOL cap -128 -80 R0
SYMATTR InstName C_IN2
SYMATTR Value 2.35µ
SYMATTR SpiceLine V=6.3 Irms=5.21 Rser=0.0271534 Lser=0.4n
SYMBOL polcap 1264 400 R0
WINDOW 3 24 56 Left 2
SYMATTR Value 220µ
SYMATTR InstName COUT-C1
SYMATTR Description Capacitor
SYMATTR Type cap
SYMATTR SpiceLine V=50 Irms=1.385 Rser=0.0336226 Lser=4.7218n mfg="Würth Elektronik" pn="860080675015 WCAP-ATLI 10x16" type="Al electrolytic"
SYMBOL cap 464 240 R0
SYMATTR InstName CBIAS-C1
SYMATTR Value 0.82µ
SYMATTR SpiceLine V=6.3 Irms=6.53 Rser=0.0172877 Lser=200p
SYMBOL cap 1168 400 R0
SYMATTR InstName C4-C1
SYMATTR Value 6.8p
SYMATTR SpiceLine V=25 Irms=0 Rser=0.299024 Lser=458.095p mfg="Würth Elektronik" pn="885012006031 WCAP-CSGP 0603" type="NP0"
SYMBOL res 1360 400 R0
SYMATTR InstName ROUT-C1
SYMATTR Value 2.857
TEXT 1024 576 Left 2 !.tran 0 1.8m 1.7m startup
TEXT 184 -136 Left 2 ;SEKCJA CYFROWA 1
