Version 4
SHEET 1 1492 680
WIRE -1664 -848 -1696 -848
WIRE -1552 -848 -1664 -848
WIRE -1440 -848 -1488 -848
WIRE -1136 -848 -1440 -848
WIRE -1024 -848 -1072 -848
WIRE -880 -848 -1024 -848
WIRE -752 -848 -880 -848
WIRE -608 -848 -752 -848
WIRE -2368 -832 -2464 -832
WIRE -2240 -832 -2288 -832
WIRE -2064 -832 -2240 -832
WIRE -1888 -832 -2064 -832
WIRE -2240 -816 -2240 -832
WIRE -1888 -752 -1888 -832
WIRE -1776 -752 -1776 -848
WIRE -1664 -752 -1664 -848
WIRE -1440 -752 -1440 -784
WIRE -608 -752 -608 -768
WIRE -1536 -736 -1568 -736
WIRE -880 -736 -880 -784
WIRE -1568 -720 -1568 -736
WIRE -2464 -688 -2464 -752
WIRE -2240 -688 -2240 -752
WIRE -2064 -688 -2064 -832
WIRE -1936 -688 -2064 -688
WIRE -1536 -688 -1536 -736
WIRE -1536 -688 -1616 -688
WIRE -1024 -656 -1024 -848
WIRE -1024 -656 -1328 -656
WIRE -2064 -624 -2064 -688
WIRE -1936 -624 -2064 -624
WIRE -1536 -624 -1616 -624
WIRE -1936 -560 -2048 -560
WIRE -1584 -560 -1616 -560
WIRE -1584 -544 -1584 -560
WIRE -1536 -544 -1584 -544
WIRE -1328 -544 -1328 -576
WIRE -1328 -544 -1536 -544
WIRE -2464 -528 -2464 -608
WIRE -1936 -496 -1968 -496
WIRE -1472 -496 -1536 -496
WIRE -2048 -464 -2048 -496
WIRE -1968 -416 -1968 -496
WIRE -1472 -400 -1472 -496
WIRE -1328 -400 -1328 -480
WIRE -1776 -384 -1776 -448
WIRE -1968 -288 -1968 -336
WIRE -1472 -256 -1472 -336
FLAG -2240 -688 0
FLAG -2464 -528 0
FLAG -1472 -256 0
FLAG -1968 -288 0
FLAG -1440 -752 0
FLAG -1776 -384 0
FLAG -1568 -720 0
FLAG -1328 -400 0
FLAG -880 -736 0
FLAG -608 -752 0
FLAG -752 -784 0
FLAG -2048 -464 0
SYMBOL PowerProducts\\LT3479 -1776 -608 R0
SYMATTR InstName U2
SYMBOL ind -1792 -832 R270
WINDOW 0 32 56 VTop 2
WINDOW 3 5 56 VBottom 2
SYMATTR InstName L3-A3
SYMATTR Value flux={4.7µ*24A}*tanh(x/{24A})
SYMATTR SpiceLine Ipk=24 Rser=0.00277 Rpar=2022.07 Cpar=30.499p
SYMBOL res -1984 -432 R0
SYMATTR InstName RT-A3
SYMATTR Value 1.78k
SYMBOL cap -2256 -816 R0
SYMATTR InstName CIN-A3
SYMATTR Value 17.8µ
SYMATTR SpiceLine V=16 Irms=0 Rser=0.00208846 Lser=1.05822p
SYMBOL res -2480 -848 R0
SYMATTR InstName RG-A3
SYMATTR Value 100m
SYMBOL voltage -2464 -704 R0
WINDOW 123 0 0 Left 0
WINDOW 39 0 0 Left 0
SYMATTR InstName V2
SYMATTR Value 6
SYMBOL res -1520 -512 R90
WINDOW 0 0 56 VBottom 2
WINDOW 3 32 56 VTop 2
SYMATTR InstName Rvcc-A3
SYMATTR Value 10k
SYMBOL cap -1488 -400 R0
SYMATTR InstName C8
SYMATTR Value 0.0022µ
SYMATTR SpiceLine V=6.3 Irms=56.2m Rser=1.80898 Lser=0.4n
SYMBOL cap -1488 -864 R90
WINDOW 0 0 32 VBottom 2
WINDOW 3 32 32 VTop 2
SYMATTR InstName CLD-A3
SYMATTR Value 2.2µ
SYMATTR SpiceLine V=4 Irms=7.1 Rser=0.00682 Lser=0 mfg="KEMET" pn="C0805C225K7PAC" type="X5R"
SYMBOL cap -1552 -688 R0
SYMATTR InstName C1-A3
SYMATTR Value 100p
SYMATTR SpiceLine V=16 Irms=0 Rser=0.144693 Lser=225.885p mfg="Würth Elektronik" pn="885012007016 WCAP-CSGP 0805" type="NP0"
SYMBOL res -1552 -640 R0
SYMATTR InstName R1-A3
SYMATTR Value 21.2k
SYMBOL res -1344 -672 R0
SYMATTR InstName R2-A3
SYMATTR Value 240k
SYMBOL schottky -1312 -480 R180
WINDOW 0 24 64 Left 2
WINDOW 3 24 0 Left 2
SYMATTR InstName D2-A3
SYMATTR Value BAT54
SYMATTR Description Diode
SYMATTR Type diode
SYMBOL ind -2384 -816 R270
WINDOW 0 32 56 VTop 2
WINDOW 3 5 56 VBottom 2
SYMATTR InstName LG-A3
SYMATTR Value 100n
SYMBOL cap -896 -848 R0
SYMATTR InstName COUT1-A3
SYMATTR Value 2.35µ
SYMATTR SpiceLine V=16 Irms=0 Rser=0.00474724 Lser=259.969p
SYMBOL cap -768 -848 R0
SYMATTR InstName COUT-A3
SYMATTR Value 2.35µ
SYMATTR SpiceLine V=16 Irms=0 Rser=0.00474724 Lser=259.969p
SYMBOL schottky -1456 -848 R0
SYMATTR InstName D1-A3
SYMATTR Value RB080L-30
SYMATTR Description Diode
SYMATTR Type diode
SYMBOL schottky -1072 -864 R90
WINDOW 0 0 32 VBottom 2
WINDOW 3 32 32 VTop 2
SYMATTR InstName D3-A3
SYMATTR Value RB080L-30
SYMATTR Description Diode
SYMATTR Type diode
SYMBOL cap -2064 -560 R0
SYMATTR InstName CSS-A3
SYMATTR Value 0.01µ
SYMATTR SpiceLine V=4 Irms=162m Rser=0.395426 Lser=0.4n
SYMBOL res -624 -864 R0
SYMATTR InstName R1
SYMATTR Value 50.09
TEXT -2496 -264 Left 2 !.tran 0 1.7m 1.5m
TEXT -1872 -936 Left 2 ;SEKCJA ANALOGOWA 3
