Version 4
SHEET 1 2024 680
WIRE 624 -144 608 -144
WIRE 720 -144 704 -144
WIRE 1056 -144 720 -144
WIRE 1360 -144 1120 -144
WIRE 1472 -144 1360 -144
WIRE 1920 -144 1472 -144
WIRE 1360 -128 1360 -144
WIRE 1920 -128 1920 -144
WIRE 128 -112 48 -112
WIRE 320 -112 208 -112
WIRE 416 -112 320 -112
WIRE 496 -112 416 -112
WIRE 1472 -112 1472 -144
WIRE 320 -96 320 -112
WIRE 496 -96 496 -112
WIRE 608 -96 608 -144
WIRE 720 -96 720 -144
WIRE 416 -32 416 -112
WIRE 448 -32 416 -32
WIRE 1360 -32 1360 -48
WIRE 1360 -32 768 -32
WIRE 1360 -16 1360 -32
WIRE 1472 -16 1472 -48
WIRE 1920 -16 1920 -48
WIRE 320 0 320 -32
WIRE 48 32 48 -32
WIRE 416 32 416 -32
WIRE 448 32 416 32
WIRE 784 32 768 32
WIRE 1360 80 1360 64
WIRE 368 96 256 96
WIRE 448 96 432 96
WIRE 784 96 784 32
WIRE 784 96 768 96
WIRE 448 160 384 160
WIRE 784 160 768 160
WIRE 880 160 864 160
WIRE 384 176 384 160
WIRE 880 176 880 160
WIRE 48 192 48 112
WIRE 256 352 256 96
WIRE 384 352 384 256
WIRE 384 352 256 352
WIRE 608 352 608 208
WIRE 608 352 384 352
WIRE 880 352 880 240
WIRE 880 352 608 352
WIRE 608 400 608 352
FLAG 608 400 0
FLAG 320 0 0
FLAG 1472 -16 0
FLAG 1360 80 0
FLAG 1920 -16 0
FLAG 1920 -144 OUT
FLAG 320 -112 IN
FLAG 48 192 0
SYMBOL PowerProducts\\LT3479 608 48 R0
SYMATTR InstName U1
SYMBOL ind 608 -128 R270
WINDOW 0 32 56 VTop 2
WINDOW 3 5 56 VBottom 2
SYMATTR InstName L1-A2
SYMATTR Value flux={4.7u*58A}*tanh(x/{58A})
SYMATTR SpiceLine Ipk=17 Rser=0.0035 Cpar=22.242p
SYMBOL res 880 144 R90
WINDOW 0 0 56 VBottom 2
WINDOW 3 32 56 VTop 2
SYMATTR InstName R1
SYMATTR Value 10k
SYMBOL cap 864 176 R0
SYMATTR InstName CVCC-A2
SYMATTR Value 0.0022µ
SYMATTR SpiceLine V=6.3 Irms=56.5m Rser=1.33509 Lser=0.8n
SYMBOL cap 432 80 R90
WINDOW 0 0 32 VBottom 2
WINDOW 3 32 32 VTop 2
SYMATTR InstName C2-A2
SYMATTR Value 0.01µ
SYMATTR SpiceLine V=4 Irms=162m Rser=0.395426 Lser=0.4n
SYMBOL res 368 160 R0
SYMATTR InstName RT-A2
SYMATTR Value 17.8K
SYMBOL schottky 1056 -128 R270
WINDOW 0 32 32 VTop 2
WINDOW 3 0 32 VBottom 2
SYMATTR InstName D1-A2
SYMATTR Value 1N5817
SYMATTR Description Diode
SYMATTR Type diode
SYMBOL res 1344 -144 R0
SYMATTR InstName R3-A2
SYMATTR Value 240k
SYMBOL res 1344 -32 R0
SYMATTR InstName R4-A2
SYMATTR Value 23.2K
SYMBOL cap 1456 -112 R0
SYMATTR InstName COUT-A2
SYMATTR Value 12.5µ
SYMATTR SpiceLine V=16 Irms=0 Rser=0.00208846 Lser=1.05822p
SYMBOL ind 112 -96 R270
WINDOW 0 32 56 VTop 2
WINDOW 3 5 56 VBottom 2
SYMATTR InstName LG-A2
SYMATTR Value 100n
SYMBOL res 32 -128 R0
SYMATTR InstName R5
SYMATTR Value 100m
SYMBOL voltage 48 16 R0
WINDOW 123 0 0 Left 0
WINDOW 39 0 0 Left 0
SYMATTR InstName V2
SYMATTR Value 6
SYMBOL cap 304 -96 R0
SYMATTR InstName CIN-A2
SYMATTR Value 4.14µ
SYMATTR SpiceLine V=25 Irms=11 Rser=0.00897799 Lser=1.2n
SYMBOL res 1904 -144 R0
SYMATTR InstName R2-A2
SYMATTR Value 50.90
TEXT 904 112 Left 2 !.tran 0 1.7m 1.6m startup
TEXT 552 -232 Left 2 ;SEKCJA ANALOGOWA 2
